reading benchmark database ./bench.db
Doing gcc
Installing gcc
ln -s /u/duvvuru/simulator/bench/little/cc1.ss run.gcc
Pre-run gcc
cp /u/duvvuru/simulator/input/ref/varasm.i .
Run gcc
//u/duvvuru/simulator/ss3/sim-outorder -fastfwd 50000000 -max:inst 10000000 -cache:dl1 dl1:64:32:4:1 run.gcc varasm.i -quiet -funroll-loops -fforce-mem -fcse-follow-jumps -fcse-skip-blocks -fexpensive-optimizations -fstrength-reduce -fpeephole -fschedule-insns -finline-functions -fschedule-insns2 -O -o varasm.s > varasm.out
sim-outorder: SimpleScalar/PISA Tool Set version 3.0 of August, 2003.
Copyright (c) 1994-2003 by Todd M. Austin, Ph.D. and SimpleScalar, LLC.
All Rights Reserved. This version of SimpleScalar is licensed for academic
non-commercial use.  No portion of this work may be used by any commercial
entity, or for any commercial purpose, without the prior written permission
of SimpleScalar, LLC (info@simplescalar.com).

fatal: bogus replacement policy, `1'
****** program returns ERROR 256
Post-run gcc
rm -f -r varasm.*
